CMD
CN
Codecov
DEMs
Delaunay
Gmsh
IDW
Initialise
Initialises
LiDAR
Ligier
MASCARET
ORCID
OpenTELEMAC
PIK
RTriangle
SELAFIN
SERAFIN
TELEMAC's
advices
bathymetry
bief
breakline
breaklines
cas
cli
codecov
colour
datatypes
datetime
dplyr
funder
geo
gstat
harmonised
harmonises
http
hydrologically
ikle
infiltrability
initialisation
initialise
lihbor
litbor
liubor
livbor
logfile
megacity
meshpoint
modelling
neighbours
opentelemac
pluie
pputils
pre
runlog
slf
tidyverse
visualisation
www
